2826
  -OEChem-03032310033D

 43 45  0     1  0  0  0  0  0999 V2000
   -0.7298   -0.0364   -0.0081 O   0  0  0  0  0  0  0  0  0  0  0  0
    2.3969    2.7636   -0.4543 O   0  0  0  0  0  0  0  0  0  0  0  0
    0.9077    2.2221    1.2266 O   0  0  0  0  0  0  0  0  0  0  0  0
   -1.5256   -1.7112    1.3560 O   0  0  0  0  0  0  0  0  0  0  0  0
    2.9413   -1.2652   -1.1566 N   0  0  2  0  0  0  0  0  0  0  0  0
    3.0221    0.0200   -0.4333 C   0  0  1  0  0  0  0  0  0  0  0  0
    2.3774   -2.1755   -0.1416 C   0  0  1  0  0  0  0  0  0  0  0  0
    1.5768    0.5710   -0.3971 C   0  0  1  0  0  0  0  0  0  0  0  0
    3.5548   -0.3683    0.9550 C   0  0  0  0  0  0  0  0  0  0  0  0
    3.1215   -1.8220    1.1486 C   0  0  0  0  0  0  0  0  0  0  0  0
    0.8759   -1.8447   -0.0427 C   0  0  0  0  0  0  0  0  0  0  0  0
    0.6116   -0.3769    0.3344 C   0  0  2  0  0  0  0  0  0  0  0  0
    4.2357   -1.7137   -1.6635 C   0  0  0  0  0  0  0  0  0  0  0  0
    1.5680    1.9316    0.2383 C   0  0  0  0  0  0  0  0  0  0  0  0
   -1.7009   -0.7872    0.5769 C   0  0  0  0  0  0  0  0  0  0  0  0
    2.4837    4.1015    0.0460 C   0  0  0  0  0  0  0  0  0  0  0  0
   -3.0457   -0.3351    0.1392 C   0  0  0  0  0  0  0  0  0  0  0  0
   -4.0709   -1.2565    0.0751 C   0  0  0  0  0  0  0  0  0  0  0  0
   -3.2287    0.9926   -0.1894 C   0  0  0  0  0  0  0  0  0  0  0  0
   -5.3343   -0.8318   -0.3359 C   0  0  0  0  0  0  0  0  0  0  0  0
   -4.4924    1.4172   -0.6002 C   0  0  0  0  0  0  0  0  0  0  0  0
   -5.5451    0.5049   -0.6734 C   0  0  0  0  0  0  0  0  0  0  0  0
    3.6928    0.7272   -0.9343 H   0  0  0  0  0  0  0  0  0  0  0  0
    2.4935   -3.2322   -0.4080 H   0  0  0  0  0  0  0  0  0  0  0  0
    1.2072    0.7160   -1.4231 H   0  0  0  0  0  0  0  0  0  0  0  0
    3.1802    0.2754    1.7568 H   0  0  0  0  0  0  0  0  0  0  0  0
    4.6496   -0.3087    0.9760 H   0  0  0  0  0  0  0  0  0  0  0  0
    4.0087   -2.4546    1.2704 H   0  0  0  0  0  0  0  0  0  0  0  0
    2.5028   -1.9470    2.0432 H   0  0  0  0  0  0  0  0  0  0  0  0
    0.3857   -2.0796   -0.9976 H   0  0  0  0  0  0  0  0  0  0  0  0
    0.4496   -2.5323    0.6938 H   0  0  0  0  0  0  0  0  0  0  0  0
    0.7237   -0.2612    1.4211 H   0  0  0  0  0  0  0  0  0  0  0  0
    4.6157   -1.0014   -2.4042 H   0  0  0  0  0  0  0  0  0  0  0  0
    4.1234   -2.6731   -2.1804 H   0  0  0  0  0  0  0  0  0  0  0  0
    4.9993   -1.8351   -0.8885 H   0  0  0  0  0  0  0  0  0  0  0  0
    2.8760    4.0986    1.0675 H   0  0  0  0  0  0  0  0  0  0  0  0
    1.5022    4.5838    0.0098 H   0  0  0  0  0  0  0  0  0  0  0  0
    3.1729    4.6595   -0.5932 H   0  0  0  0  0  0  0  0  0  0  0  0
   -3.9182   -2.3005    0.3322 H   0  0  0  0  0  0  0  0  0  0  0  0
   -2.4296    1.7252   -0.1277 H   0  0  0  0  0  0  0  0  0  0  0  0
   -6.1540   -1.5421   -0.3936 H   0  0  0  0  0  0  0  0  0  0  0  0
   -4.6577    2.4587   -0.8603 H   0  0  0  0  0  0  0  0  0  0  0  0
   -6.5290    0.8357   -0.9928 H   0  0  0  0  0  0  0  0  0  0  0  0
  1 12  1  0  0  0  0
  1 15  1  0  0  0  0
  2 14  1  0  0  0  0
  2 16  1  0  0  0  0
  3 14  2  0  0  0  0
  4 15  2  0  0  0  0
  5  6  1  0  0  0  0
  5  7  1  0  0  0  0
  5 13  1  0  0  0  0
  6  8  1  0  0  0  0
  6  9  1  0  0  0  0
  6 23  1  0  0  0  0
  7 10  1  0  0  0  0
  7 11  1  0  0  0  0
  7 24  1  0  0  0  0
  8 12  1  0  0  0  0
  8 14  1  0  0  0  0
  8 25  1  0  0  0  0
  9 10  1  0  0  0  0
  9 26  1  0  0  0  0
  9 27  1  0  0  0  0
 10 28  1  0  0  0  0
 10 29  1  0  0  0  0
 11 12  1  0  0  0  0
 11 30  1  0  0  0  0
 11 31  1  0  0  0  0
 12 32  1  0  0  0  0
 13 33  1  0  0  0  0
 13 34  1  0  0  0  0
 13 35  1  0  0  0  0
 15 17  1  0  0  0  0
 16 36  1  0  0  0  0
 16 37  1  0  0  0  0
 16 38  1  0  0  0  0
 17 18  2  0  0  0  0
 17 19  1  0  0  0  0
 18 20  1  0  0  0  0
 18 39  1  0  0  0  0
 19 21  2  0  0  0  0
 19 40  1  0  0  0  0
 20 22  2  0  0  0  0
 20 41  1  0  0  0  0
 21 22  1  0  0  0  0
 21 42  1  0  0  0  0
 22 43  1  0  0  0  0
M  END
> <PUBCHEM_COMPOUND_CID>
2826

> <PUBCHEM_CONFORMER_RMSD>
0.8

> <PUBCHEM_CONFORMER_DIVERSEORDER>
4
107
65
93
45
117
20
3
100
15
120
48
42
84
5
51
81
124
38
95
69
96
112
75
79
116
7
18
113
108
103
92
27
125
86
36
122
12
67
68
9
21
16
126
56
72
70
43
115
19
82
76
35
57
39
121
94
29
89
50
53
1
14
54
98
88
24
62
73
87
23
41
90
119
33
31
74
13
55
40
49
25
64
104
63
71
32
60
17
22
91
52
118
26
123
102
8
46
37
10
85
44
110
28
106
34
114
6
77
80
2
47
109
30
66
105
11
78
127
111
58
101
83
97
61
59
99

> <PUBCHEM_MMFF94_PARTIAL_CHARGES>
24
1 -0.43
12 0.28
13 0.27
14 0.66
15 0.63
16 0.28
17 0.09
18 -0.15
19 -0.15
2 -0.43
20 -0.15
21 -0.15
22 -0.15
3 -0.57
39 0.15
4 -0.57
40 0.15
41 0.15
42 0.15
43 0.15
5 -0.81
6 0.27
7 0.27
8 0.06

> <PUBCHEM_EFFECTIVE_ROTOR_COUNT>
6.2

> <PUBCHEM_PHARMACOPHORE_FEATURES>
5
1 3 acceptor
1 4 acceptor
1 5 cation
6 17 18 19 20 21 22 rings
8 5 6 7 8 9 10 11 12 rings

> <PUBCHEM_HEAVY_ATOM_COUNT>
22

> <PUBCHEM_ATOM_DEF_STEREO_COUNT>
0

> <PUBCHEM_ATOM_UDEF_STEREO_COUNT>
4

> <PUBCHEM_BOND_DEF_STEREO_COUNT>
0

> <PUBCHEM_BOND_UDEF_STEREO_COUNT>
0

> <PUBCHEM_ISOTOPIC_ATOM_COUNT>
0

> <PUBCHEM_COMPONENT_COUNT>
1

> <PUBCHEM_CACTVS_TAUTO_COUNT>
1

> <PUBCHEM_CONFORMER_ID>
00000B0A00000004

> <PUBCHEM_MMFF94_ENERGY>
59.7038

> <PUBCHEM_FEATURE_SELFOVERLAP>
25.372

> <PUBCHEM_SHAPE_FINGERPRINT>
10366900 7 18040442070616592971
11405975 8 18409729561060037577
12403259 226 18188199914908420485
12403259 415 18040150717689797085
12403260 363 18410564103006735627
12549972 3 17676498284109213809
12553582 1 18266194832912672376
12617007 42 18202011992982608286
12730499 353 18193847161321301825
12788726 201 17901674769764469490
13134695 92 18336255748231311518
14251764 38 18410007758750536497
14508225 48 18125739911088790164
14866123 147 16753246814229899779
15163728 17 16880784008711778468
15210252 30 17968392147464278436
15238133 3 18114179684072463338
15788980 27 16558745677272351735
15848700 24 18271244907146713462
17349148 13 16773800281709314991
17492 89 18339923822360081671
17844677 252 18410015434083324033
17980427 23 17771313600400558186
18186145 218 18411704262173501963
18222031 100 18130506331964563374
18681886 176 18343015597369703762
200 152 17917427610453078507
20369508 70 18335134284915026130
20645477 70 18341614858072998663
21033648 29 17095793366079331677
21709351 56 18412254047915095735
221357 26 18411135793366446941
221490 88 18338805614575654995
22289505 5 18337669715652203044
22393880 68 18267875066994778566
2255824 54 18411136969665233318
23558518 356 17754735253701929595
23559900 14 18411415116131850027
3004659 81 17823421487976919682
3060560 45 18272091582677164878
312423 11 18059587896866675025
3286 77 18187638090104646375
3411729 13 18263073478880234792
345986 75 17027378307518464418
351380 180 18335695032019567047
46194498 28 18412547634725695119
495365 180 18270674393439431457
5104073 3 18334296500721544953
5281201 14 18411702088909357773
543358 83 18410015403237857193
5939293 188 18410289216430826560
633830 44 18335691763760399575
67856867 119 18339349881426379753
7364860 26 18340771545645060112
7471813 234 17846497010911029833
7495541 125 18114181930171586731
81228 2 17981336586162223728
8509985 295 17968926505403438226
9709674 26 18337393841745830427
9841814 1 18335417954830781696
9971528 1 18130506344943962378
9981440 41 17903348552468477305

> <PUBCHEM_SHAPE_MULTIPOLES>
424.29
10.26
3.22
1.1
13.37
3.66
0.05
-1.47
2.58
-3.75
-0.13
-0.88
-0.37
0.81

> <PUBCHEM_SHAPE_SELFOVERLAP>
909.651

> <PUBCHEM_SHAPE_VOLUME>
235.2

> <PUBCHEM_COORDINATE_TYPE>
2
5
10

$$$$
